**----------------------------------
**INDENTATION SIMULATION
**----------------------------------
*HEADING
Abapy Indentation Simulation
*PREPRINT, ECHO=NO, MODEL=NO, HISTORY=NO, CONTACT=NO
**----------------------------------
** SAMPLE DEFINITION
*PART, NAME = P_SAMPLE
**------------------------------------------------------------------------------
** NODES
**------------------------------------------------------------------------------
*NODE, NSET=ALLNODES
1, 0.0, 0.0, 0.0
2, 0.0, -1.0, 0.0
3, 1.0, -1.0, 0.0
4, 1.0, 0.0, 0.0
5, 0.0, -2.0, 0.0
6, 2.0, 0.0, 0.0
7, 0.0, -100.0, 0.0
8, 100.0, 0.0, 0.0
9, 0.0, -0.0666666666665, 0.0
10, 0.0, -0.133333333333, 0.0
11, 0.0, -0.2, 0.0
12, 0.0, -0.266666666666, 0.0
13, 0.0, -0.333333333333, 0.0
14, 0.0, -0.399999999999, 0.0
15, 0.0, -0.466666666665, 0.0
16, 0.0, -0.533333333332, 0.0
17, 0.0, -0.599999999999, 0.0
18, 0.0, -0.666666666666, 0.0
19, 0.0, -0.733333333333, 0.0
20, 0.0, -0.799999999999, 0.0
** ... 1457 like lines cut
**------------------------------------------------------------------------------
** NODE SETS
**------------------------------------------------------------------------------
*NSET, NSET=AXIS
1,2,5,7,9,10,11,12,13,14,15,16,17,18,19,
20,21,22,97,98,99,100,101,102,103,104,105,106,107,108,109,
154,155,156,157,158,159,160,161,162,163,164,165,166,167,168,169,
170,171,172,173,174,175,176,177,178,179,180,
*NSET, NSET=SURFACE
1,4,6,67,68,69,70,71,72,73,74,75,76,77,78,
79,80,81,82,83,84,85,86,87,88,89,90,91,92,93,94,
95,96,141,142,143,144,145,146,147,148,149,150,151,152,153,
*NSET, NSET=BOTTOM
7,8,181,182,183,184,185,186,187
**------------------------------------------------------------------------------
** ELEMENTS
**------------------------------------------------------------------------------
*ELEMENT, TYPE=CAX4, ELSET=CAX4_ELEMENTS
111, 1, 9, 215, 96,
112, 96, 215, 216, 95,
113, 95, 216, 217, 94,
114, 94, 217, 218, 93,
115, 93, 218, 219, 92,
116, 92, 219, 220, 91,
117, 91, 220, 221, 90,
118, 90, 221, 222, 89,
119, 89, 222, 223, 88,
120, 88, 223, 224, 87,
121, 87, 224, 225, 86,
122, 86, 225, 226, 85,
123, 85, 226, 227, 84,
124, 84, 227, 228, 83,
125, 83, 228, 229, 82,
126, 82, 229, 230, 81,
127, 81, 230, 231, 80,
128, 80, 231, 232, 79,
129, 79, 232, 233, 78,
130, 78, 233, 234, 77,
** ... 1387 like lines cut
**------------------------------------------------------------------------------
** ELEMENT SETS
**------------------------------------------------------------------------------
*ELSET, ELSET=CORE
111,112,113,114,115,116,117,118,119,120,121,122,123,124,125,
126,127,128,129,130,131,132,133,134,135,136,137,138,139,140,141,
142,143,144,145,146,147,148,149,150,151,152,153,154,155,156,157,
158,159,160,161,162,163,164,165,166,167,168,169,170,171,172,173,
174,175,176,177,178,179,180,181,182,183,184,185,186,187,188,189,
190,191,192,193,194,195,196,197,198,199,200,201,202,203,204,205,
206,207,208,209,210,211,212,213,214,215,216,217,218,219,220,221,
222,223,224,225,226,227,228,229,230,231,232,233,234,235,236,237,
238,239,240,241,242,243,244,245,246,247,248,249,250,251,252,253,
254,255,256,257,258,259,260,261,262,263,264,265,266,267,268,269,
270,271,272,273,274,275,276,277,278,279,280,281,282,283,284,285,
286,287,288,289,290,291,292,293,294,295,296,297,298,299,300,301,
302,303,304,305,306,307,308,309,310,311,312,313,314,315,316,317,
318,319,320,321,322,323,324,325,326,327,328,329,330,331,332,333,
334,335,336,337,338,339,340,341,342,343,344,345,346,347,348,349,
350,351,352,353,354,355,356,357,358,359,360,361,362,363,364,365,
366,367,368,369,370,371,372,373,374,375,376,377,378,379,380,381,
382,383,384,385,386,387,388,389,390,391,392,393,394,395,396,397,
398,399,400,401,402,403,404,405,406,407,408,409,410,411,412,413,
414,415,416,417,418,419,420,421,422,423,424,425,426,427,428,429,
** ... 10 like lines cut
*ELSET, ELSET=SHELL1
576,577,578,579,580,581,582,583,584,585,586,587,588,589,590,
591,592,593,594,595,596,597,598,599,600,601,602,603,604,605,606,
607,608,609,610,611,612,613,614,615,616,617,618,619,620,621,622,
623,624,625,626,627,628,629,630,631,632,633,634,635,636,637,638,
639,640,641,642,643,644,645,646,647,648,649,650,651,652,653,654,
655,656,657,658,659,660,661,662,663,664,665,666,667,668,669,670,
671,672,673,674,675,676,677,678,679,680,681,682,683,684,685,686,
687,688,689,690,691,692,693,694,695,696,697,698,699,700,701,702,
703,704,705,706,707,708,709,710,711,712,713,714,715,716,717,718,
719,720,721,722,723,724,725,726,727,728,729,730,731,732,733,734,
735,736,737,738,739,740,741,742,743,744,745,746,747,748,749,750,
751,752,753,754,755,756,757,758,759,760,761,762,763,764,765,766,
767,768,769,770,771,772,773,774,775,776,777,778,779,780,781,782,
783,784,785,786,787,788,789,790,791,792,793,794,795,796,797,798,
799,800,801,802,803,804,805,806,807,808,809,810,811,812,813,814,
815,816,817,818,819,820,821,822,823,824,825,826,827,828,829,830,
831,832,833,834,835,836,837,838,839,840,841,842,843,844,845,846,
847,848,849,850,851,852,853,854,855,856,857,858,859,860,861,862,
863,864,865,866,867,868,869,870,871,872,873,874,875,876,877,878,
879,880,881,882,883,884,885,886,887,888,889,890,891,892,893,894,
** ... 18 like lines cut
*ELSET, ELSET=SHELL2
1164,1165,1166,1167,1168,1169,1170,1171,1172,1173,1174,1175,1176,1177,1178,
1179,1180,1181,1182,1183,1184,1185,1186,1187,1188,1189,1190,1191,1192,1193,
1194,1195,1196,1197,1198,1199,1200,1201,1202,1203,1204,1205,1206,1207,1208,
1209,1210,1211,1212,1213,1214,1215,1216,1217,1218,1219,1220,1221,1222,1223,
1224,1225,1226,1227,1228,1229,1230,1231,1232,1233,1234,1235,1236,1237,1238,
1239,1240,1241,1242,1243,1244,1245,1246,1247,1248,1249,1250,1251,1252,1253,
1254,1255,1256,1257,1258,1259,1260,1261,1262,1263,1264,1265,1266,1267,1268,
1269,1270,1271,1272,1273,1274,1275,1276,1277,1278,1279,1280,1281,1282,1283,
1284,1285,1286,1287,1288,1289,1290,1291,1292,1293,1294,1295,1296,1297,1298,
1299,1300,1301,1302,1303,1304,1305,1306,1307,1308,1309,1310,1311,1312,1313,
1314,1315,1316,1317,1318,1319,1320,1321,1322,1323,1324,1325,1326,1327,1328,
1329,1330,1331,1332,1333,1334,1335,1336,1337,1338,1339,1340,1341,1342,1343,
1344,1345,1346,1347,1348,1349,1350,1351,1352,1353,1354,1355,1356,1357,1358,
1359,1360,1361,1362,1363,1364,1365,1366,1367,1368,1369,1370,1371,1372,1373,
1374,1375,1376,1377,1378,1379,1380,1381,1382,1383,1384,1385,1386,1387,1388,
1389,1390,1391,1392,1393,1394,1395,1396,1397,1398,1399,1400,1401,1402,1403,
1404,1405,1406,1407,1408,1409,1410,1411,1412,1413,1414,1415,1416,1417,1418,
1419,1420,1421,1422,1423,1424,1425,1426,1427,1428,1429,1430,1431,1432,1433,
1434,1435,1436,1437,1438,1439,1440,1441,1442,1443,1444,1445,1446,1447,1448,
1449,1450,1451,1452,1453,1454,1455,1456,1457,1458,1459,1460,1461,1462,1463,
** ... 4 like lines cut
*ELSET, ELSET=ALL_ELEMENTS
111,112,113,114,115,116,117,118,119,120,121,122,123,124,125,
126,127,128,129,130,131,132,133,134,135,136,137,138,139,140,141,
142,143,144,145,146,147,148,149,150,151,152,153,154,155,156,157,
158,159,160,161,162,163,164,165,166,167,168,169,170,171,172,173,
174,175,176,177,178,179,180,181,182,183,184,185,186,187,188,189,
190,191,192,193,194,195,196,197,198,199,200,201,202,203,204,205,
206,207,208,209,210,211,212,213,214,215,216,217,218,219,220,221,
222,223,224,225,226,227,228,229,230,231,232,233,234,235,236,237,
238,239,240,241,242,243,244,245,246,247,248,249,250,251,252,253,
254,255,256,257,258,259,260,261,262,263,264,265,266,267,268,269,
270,271,272,273,274,275,276,277,278,279,280,281,282,283,284,285,
286,287,288,289,290,291,292,293,294,295,296,297,298,299,300,301,
302,303,304,305,306,307,308,309,310,311,312,313,314,315,316,317,
318,319,320,321,322,323,324,325,326,327,328,329,330,331,332,333,
334,335,336,337,338,339,340,341,342,343,344,345,346,347,348,349,
350,351,352,353,354,355,356,357,358,359,360,361,362,363,364,365,
366,367,368,369,370,371,372,373,374,375,376,377,378,379,380,381,
382,383,384,385,386,387,388,389,390,391,392,393,394,395,396,397,
398,399,400,401,402,403,404,405,406,407,408,409,410,411,412,413,
414,415,416,417,418,419,420,421,422,423,424,425,426,427,428,429,
** ... 71 like lines cut
*ELSET, ELSET=_SURF_SURFACE_FACE1
764,957,
*ELSET, ELSET=_SURF_SURFACE_FACE2
681,715,910,1013,
*ELSET, ELSET=_SURF_SURFACE_FACE3
608,823,
*ELSET, ELSET=_SURF_SURFACE_FACE4
111,112,113,114,115,116,117,118,119,120,121,122,123,124,125,
126,127,128,129,130,131,132,133,134,135,136,137,138,139,140,141,
609,773,835,889,962,1135
**------------------------------------------------------------------------------
** SURFACES
**------------------------------------------------------------------------------
*SURFACE, TYPE=ELEMENT, NAME=SURFACE
  _SURF_SURFACE_FACE4, S4
  _SURF_SURFACE_FACE3, S3
  _SURF_SURFACE_FACE2, S2
  _SURF_SURFACE_FACE1, S1
*SOLID SECTION, ELSET = ALL_ELEMENTS, MATERIAL = SAMPLE_MAT
*END PART
**----------------------------------
** INDENTER DEFINITION
**----------------------------------
*PART, NAME = P_INDENTER
**----------------------------------
** NODES
**----------------------------------
*Node, NSET=ALLNODES
  1, 0.0, 1.0, 0.0
  2, 0.0977232679725, 1.00303304195, 0.0
  3, 0.196015700698, 1.01196730137, 0.0
  4, 0.295353114605, 1.02634859085, 0.0
  5, 0.396060228348, 1.04553163052, 0.0
  6, 0.498300790787, 1.06879425049, 0.0
  7, 0.602103948593, 1.09543180466, 0.0
  8, 0.707405805588, 1.12481200695, 0.0
  9, 0.814088702202, 1.15639936924, 0.0
  10, 0.0, 0.875, 0.0
  11, 0.0977530032396, 0.878461360931, 0.0
  12, 0.196239650249, 0.888602852821, 0.0
  13, 0.296040982008, 0.904770553112, 0.0
  14, 0.397504746914, 0.926075041294, 0.0
  15, 0.500752747059, 0.951575934887, 0.0
  16, 0.605740606785, 0.980409741402, 0.0
  17, 0.712327599525, 1.01184952259, 0.0
  18, 0.820331811905, 1.04531371593, 0.0
  19, 0.0, 0.75, 0.0
  20, 0.0977984964848, 0.754029512405, 0.0
** ... 311 like lines cut
**----------------------------------
** NODE SETS
**----------------------------------
*NSET, NSET=CORE_NODES
1,2,3,4,5,6,7,8,9,
10,11,12,13,14,15,16,17,18,
19,20,21,22,23,24,25,26,27,
28,29,30,31,32,33,34,35,36,
37,38,39,40,41,42,43,44,45,
46,47,48,49,50,51,52,53,54,
55,56,57,58,59,60,61,62,63,
64,65,66,67,68,69,70,71,72,
73,74,75,76,77,78,79,80,81,
83,84,85,86,87,88,89,90,92,
93,94,95,96,97,98,99,101,102,
103,104,105,106,107,108,110,111,112,
113,114,115,116,117,119,120,121,122,
123,124,125,126,128,129,130,131,132,
133,134,135,137,138,139,140,141,142,
143,144,146,147,148,149,150,151,152,
153,155,156,157,158,159,160,161,162,
163,164,165,166,167,168,169,170,172,
173,174,175,176,177,178,179,181,182,
183,184,185,186,187,188,190,191,192,
** ... 5 like lines cut
*NSET, NSET=ALL_NODES
1,2,3,4,5,6,7,8,9,
10,11,12,13,14,15,16,17,18,
19,20,21,22,23,24,25,26,27,
28,29,30,31,32,33,34,35,36,
37,38,39,40,41,42,43,44,45,
46,47,48,49,50,51,52,53,54,
55,56,57,58,59,60,61,62,63,
64,65,66,67,68,69,70,71,72,
73,74,75,76,77,78,79,80,81,
83,84,85,86,87,88,89,90,92,
93,94,95,96,97,98,99,101,102,
103,104,105,106,107,108,110,111,112,
113,114,115,116,117,119,120,121,122,
123,124,125,126,128,129,130,131,132,
133,134,135,137,138,139,140,141,142,
143,144,146,147,148,149,150,151,152,
153,155,156,157,158,159,160,161,162,
163,164,165,166,167,168,169,170,172,
173,174,175,176,177,178,179,181,182,
183,184,185,186,187,188,190,191,192,
** ... 17 like lines cut
*NSET, NSET=REF_NODE
296,
*NSET, NSET=BOTTOM_NODES
296,297,298,348,349,
*NSET, NSET=TOP_NODES
73,74,75,76,77,78,79,80,81,
155,156,157,158,159,160,161,162,
*NSET, NSET=XSYM_NODES
296,
*NSET, NSET=SURFACE_NODES
73,74,75,76,77,78,79,80,81,
155,156,157,158,159,160,161,162,
*NSET, NSET=RIGID_NODES
1,2,3,4,5,6,7,8,9,
10,11,12,13,14,15,16,17,18,
19,20,21,22,23,24,25,26,27,
28,29,30,31,32,33,34,35,36,
37,38,39,40,41,42,43,44,45,
46,47,48,49,50,51,52,53,54,
55,56,57,58,59,60,61,62,63,
64,65,66,67,68,69,70,71,72,
73,74,75,76,77,78,79,80,81,
83,84,85,86,87,88,89,90,92,
93,94,95,96,97,98,99,101,102,
103,104,105,106,107,108,110,111,112,
113,114,115,116,117,119,120,121,122,
123,124,125,126,128,129,130,131,132,
133,134,135,137,138,139,140,141,142,
143,144,146,147,148,149,150,151,152,
153,155,156,157,158,159,160,161,162,
163,164,165,166,167,168,169,170,172,
173,174,175,176,177,178,179,181,182,
183,184,185,186,187,188,190,191,192,
** ... 17 like lines cut
*NSET, NSET=SHELL_NODES
234,235,236,237,238,239,240,247,248,
250,251,252,259,260,262,263,264,271,
272,274,275,276,90,99,108,117,126,
135,144,153,162,163,164,165,166,167,
168,169,170,277,278,279,280,281,282,
283,290,291,293,294,295,296,297,298,
299,300,301,302,303,304,305,306,307,
308,309,310,311,312,313,314,315,316,
317,318,319,320,321,322,323,324,325,
326,327,328,329,330,331,332,333,334,
335,336,337,338,339,340,341,342,343,
348,349,351,352,354,355,357,358,360,
361,363,364,366,367,369,370,372,373,
375,376,378,379,381,382,384,385,387,
388,390,391,393,394,
*NSET, NSET=TIP_NODE
73,
*NSET, NSET=AXIS_NODES
1,10,19,28,37,46,55,64,73,
163,172,181,190,199,208,217,226,234,
237,277,280,296,299,302,305,308,311,
314,317,320,323,326,329,332,335,338,
341,
**----------------------------------
** ELEMENTS
**----------------------------------
*ELEMENT, TYPE=CAX4, ELSET=CAX4_ELEMENTS
  1, 10, 11, 2, 1, 
  2, 11, 12, 3, 2, 
  3, 12, 13, 4, 3, 
  4, 13, 14, 5, 4, 
  5, 14, 15, 6, 5, 
  6, 15, 16, 7, 6, 
  7, 16, 17, 8, 7, 
  8, 17, 18, 9, 8, 
  9, 19, 20, 11, 10, 
  10, 20, 21, 12, 11, 
  11, 21, 22, 13, 12, 
  12, 22, 23, 14, 13, 
  13, 23, 24, 15, 14, 
  14, 24, 25, 16, 15, 
  15, 25, 26, 17, 16, 
  16, 26, 27, 18, 17, 
  17, 28, 29, 20, 19, 
  18, 29, 30, 21, 20, 
  19, 30, 31, 22, 21, 
  20, 31, 32, 23, 22, 
** ... 272 like lines cut
**----------------------------------
** ELEMENT SETS
**----------------------------------
*ELSET, ELSET=ALL_ELEMENTS
  1, 2, 3, 4, 5, 6, 7, 8, 9,
 10, 11, 12, 13, 14, 15, 16, 17, 18,
 19, 20, 21, 22, 23, 24, 25, 26, 27,
 28, 29, 30, 31, 32, 33, 34, 35, 36,
 37, 38, 39, 40, 41, 42, 43, 44, 45,
 46, 47, 48, 49, 50, 51, 52, 53, 54,
 55, 56, 57, 58, 59, 60, 61, 62, 63,
 64, 65, 66, 67, 68, 69, 70, 71, 72,
 73, 74, 75, 76, 77, 78, 79, 80, 81,
 82, 83, 84, 85, 86, 87, 88, 89, 90,
 91, 92, 93, 94, 95, 96, 97, 98, 99,
 100, 101, 102, 103, 104, 105, 106, 107, 108,
 109, 110, 111, 112, 113, 114, 115, 116, 117,
 118, 119, 120, 121, 122, 123, 124, 125, 126,
 127, 128, 129, 130, 131, 132, 133, 134, 135,
 136, 137, 138, 139, 140, 141, 142, 143, 144,
 145, 146, 147, 148, 149, 150, 151, 152, 153,
 154, 155, 156, 157, 158, 159, 160, 161, 162,
 163, 164, 165, 166, 167, 168, 169, 170, 171,
 172, 173, 174, 175, 176, 177, 178, 179, 180,
** ... 13 like lines cut
*ELSET, ELSET=SHELL_ELEMENTS
  193, 194, 195, 196, 197, 198, 199, 200, 201,
 202, 203, 204, 205, 206, 207, 208, 209, 210,
 211, 212, 213, 214, 215, 216, 217, 218, 219,
 220, 221, 222, 223, 224, 225, 226, 227, 228,
 229, 230, 231, 232, 233, 234, 235, 236, 237,
 238, 239, 240, 241, 242, 243, 244, 245, 246,
 247, 248, 249, 250, 251, 252, 253, 254, 255,
 256, 257, 258, 259, 260, 261, 262, 263, 264,
 265, 266, 267, 268, 269, 270, 271, 272, 273,
 274, 275, 276, 277, 278, 279, 280, 281, 282,
 283, 284, 285, 286, 287, 288, 289, 290, 291,
 292,
*ELSET, ELSET=CORE_ELEMENTS
  1, 2, 3, 4, 5, 6, 7, 8, 9,
 10, 11, 12, 13, 14, 15, 16, 17, 18,
 19, 20, 21, 22, 23, 24, 25, 26, 27,
 28, 29, 30, 31, 32, 33, 34, 35, 36,
 37, 38, 39, 40, 41, 42, 43, 44, 45,
 46, 47, 48, 49, 50, 51, 52, 53, 54,
 55, 56, 57, 58, 59, 60, 61, 62, 63,
 64, 65, 66, 67, 68, 69, 70, 71, 72,
 73, 74, 75, 76, 77, 78, 79, 80, 81,
 82, 83, 84, 85, 86, 87, 88, 89, 90,
 91, 92, 93, 94, 95, 96, 97, 98, 99,
 100, 101, 102, 103, 104, 105, 106, 107, 108,
 109, 110, 111, 112, 113, 114, 115, 116, 117,
 118, 119, 120, 121, 122, 123, 124, 125, 126,
 127, 128, 129, 130, 131, 132, 133, 134, 135,
 136, 137, 138, 139, 140, 141, 142, 143, 144,
 145, 146, 147, 148, 149, 150, 151, 152, 153,
 154, 155, 156, 157, 158, 159, 160, 161, 162,
 163, 164, 165, 166, 167, 168, 169, 170, 171,
 172, 173, 174, 175, 176, 177, 178, 179, 180,
 181, 182, 183, 184, 185, 186, 187, 188, 189,
 190, 191, 192,
*ELSET, ELSET=SURFACE_ELEMENTS
  64, 128, 59, 124, 126, 63, 61, 122, 57,
 121, 58, 123, 60, 125, 62, 127,
**----------------------------------
** ELEMENT SURFACES
**----------------------------------
*SURFACE, TYPE=ELEMENT, NAME=SURFACE_FACES
 surface_elements, S1
**----------------------------------
** ELEMENT SURFACES
**----------------------------------
*SOLID SECTION, ELSET = ALL_ELEMENTS, MATERIAL = INDENTER_MAT
*RIGID BODY, REF NODE = REF_NODE, PIN NSET=RIGID_NODES
*END PART
**----------------------------------
** ASSEMBLY
**----------------------------------
*ASSEMBLY, NAME = ASSEMBLY
*INSTANCE, NAME = I_SAMPLE, PART = P_SAMPLE
*END INSTANCE
*INSTANCE, NAME = I_INDENTER, PART= P_INDENTER
*END INSTANCE
*END ASSEMBLY
**----------------------------------
** SURFACE INTERACTIONS
**----------------------------------
*SURFACE INTERACTION, NAME = SURF_INT
*FRICTION
0.0,
*SURFACE BEHAVIOR, PRESSURE-OVERCLOSURE = HARD
*CONTACT PAIR, INTERACTION = SURF_INT, SUPPLEMENTARY CONSTRAINTS = NO, TYPE= NODE TO SURFACE
I_SAMPLE.SURFACE, I_INDENTER.SURFACE_FACES
**----------------------------------
** MATERIALS
**----------------------------------
** SAMPLE MATERIAL
** <VonMises instance: 1 samples>
*MATERIAL, NAME=SAMPLE_MAT
*ELASTIC
  1.0, 0.3
*PLASTIC
  0.01, 0.
** INDENTER MATERIAL
** <Elastic instance: 1 samples>
*MATERIAL, NAME=INDENTER_MAT
*ELASTIC
  1.0, 0.3
**----------------------------------
** STEPS
**----------------------------------
*STEP, NAME = LOADING, NLGEOM = YES, INC=1000000
*STATIC, DIRECT
0.02, 1.
*BOUNDARY
I_SAMPLE.AXIS, 1, 1
I_SAMPLE.BOTTOM, 1, 3
I_INDENTER.XSYM_NODES, 1, 1
I_INDENTER.XSYM_NODES, 3, 3
I_INDENTER.REF_NODE, 4, 6 
I_INDENTER.REF_NODE, 2, 2, -0.166758329628
*RESTART, WRITE, FREQUENCY = 0
*OUTPUT, FIELD, FREQUENCY = 999999
*NODE OUTPUT
COORD, U, 
*NODE OUTPUT, NSET=I_INDENTER.REF_NODE
U
*ELEMENT OUTPUT, ELSET=I_SAMPLE.ALL_ELEMENTS, DIRECTIONS = YES
LE, EE, PE, PEEQ, S, 
*ELEMENT OUTPUT, ELSET=I_INDENTER.ALL_ELEMENTS, DIRECTIONS = YES
LE, EE, PE, PEEQ, S, 
*OUTPUT, HISTORY
*ENERGY OUTPUT
ALLFD, ALLWK
*ENERGY OUTPUT, ELSET=I_SAMPLE.ALL_ELEMENTS
ALLPD
*ENERGY OUTPUT, ELSET=I_SAMPLE.ALL_ELEMENTS
ALLSE
*ENERGY OUTPUT, ELSET=I_INDENTER.ALL_ELEMENTS
ALLSE
*CONTACT OUTPUT, NSET=I_SAMPLE.SURFACE
CPRESS
*NODE OUTPUT, NSET=I_INDENTER.REF_NODE
U2
*NODE OUTPUT, NSET=I_INDENTER.TIP_NODE
U2
*NODE OUTPUT, NSET=I_INDENTER.REF_NODE
RF2
*NODE OUTPUT, NSET = I_SAMPLE.SURFACE
COOR1, COOR2, COOR3
*END STEP
